models/8500 Node System/IEEE8500-CSV/DSSdata/IEEETest/4800Bus/CSV_Version/UnbalancedLoads.CSV
Name, NumPhases, Bus, phases, Voltage, status, model, connection, kW, PF
138236B0a, 1, SX2673305B, a, 120,  variable, 1, wye,  0.696180467009544, 0.97 
138236B0b, 1, SX2673305B, b, 120,  variable, 1, wye,  3.19381953299046, 0.97 
138237B0a, 1, SX3048196B, a, 120,  variable, 1, wye,  2.30339207649231, 0.97 
138237B0b, 1, SX3048196B, b, 120,  variable, 1, wye,  3.53660792350769, 0.97 
138258C0a, 1, SX2991911C, a, 120,  variable, 1, wye,  0.932027059793472, 0.97 
138258C0b, 1, SX2991911C, b, 120,  variable, 1, wye,  5.16797294020653, 0.97 
138259C0a, 1, SX2973158C, a, 120,  variable, 1, wye,  0.616065526008606, 0.97 
138259C0b, 1, SX2973158C, b, 120,  variable, 1, wye,  5.48393447399139, 0.97 
138260A0a, 1, SX3048208A, a, 120,  variable, 1, wye,  1.45716053724289, 0.97 
138260A0b, 1, SX3048208A, b, 120,  variable, 1, wye,  3.86283946275711, 0.97 
138262A0a, 1, SX3029502A, a, 120,  variable, 1, wye,  11.3558540940285, 0.97 
138262A0b, 1, SX3029502A, b, 120,  variable, 1, wye,  6.38414590597153, 0.97 
138264B0a, 1, SX3104125B, a, 120,  variable, 1, wye,  0.721058705449104, 0.97 
138264B0b, 1, SX3104125B, b, 120,  variable, 1, wye,  9.0089412945509, 0.97 
138265A0a, 1, SX3160107A, a, 120,  variable, 1, wye,  5.42583449840546, 0.97 
138265A0b, 1, SX3160107A, b, 120,  variable, 1, wye,  3.44416550159454, 0.97 
138294B0a, 1, SX2785516B, a, 120,  variable, 1, wye,  0.979905409812927, 0.97 
138294B0b, 1, SX2785516B, b, 120,  variable, 1, wye,  4.86009459018707, 0.97 
138313A0a, 1, SX3141400A, a, 120,  variable, 1, wye,  3.3028557240963, 0.97 
138313A0b, 1, SX3141400A, b, 120,  variable, 1, wye,  0.247144275903702, 0.97 
138342C0a, 1, SX2897775C, a, 120,  variable, 1, wye,  5.46709477722645, 0.97 
138342C0b, 1, SX2897775C, b, 120,  variable, 1, wye,  4.70290522277355, 0.97 
138343C0a, 1, SX3010565C, a, 120,  variable, 1, wye,  1.90731858491898, 0.97 
138343C0b, 1, SX3010565C, b, 120,  variable, 1, wye,  2.16268141508102, 0.97 
138346C0a, 1, SX2916609C, a, 120,  variable, 1, wye,  0.640997141599655, 0.97 
138346C0b, 1, SX2916609C, b, 120,  variable, 1, wye,  5.45900285840034, 0.97 
138371C0a, 1, SX2879073C, a, 120,  variable, 1, wye,  5.15049561262131, 0.97 
138371C0b, 1, SX2879073C, b, 120,  variable, 1, wye,  0.949504387378693, 0.97 
138372C0a, 1, SX3104126C, a, 120,  variable, 1, wye,  3.53355606496334, 0.97 
138372C0b, 1, SX3104126C, b, 120,  variable, 1, wye,  0.536443935036659, 0.97 
138373C0a, 1, SX3029503C, a, 120,  variable, 1, wye,  3.10627183914185, 0.97 
138373C0b, 1, SX3029503C, b, 120,  variable, 1, wye,  2.99372816085815, 0.97 
138374C0a, 1, SX2691950C, a, 120,  variable, 1, wye,  1.3819062012434, 0.97 
138374C0b, 1, SX2691950C, b, 120,  variable, 1, wye,  8.7880937987566, 0.97 
138379C0a, 1, SX2691951C, a, 120,  variable, 1, wye,  5.53433520913124, 0.97 
138379C0b, 1, SX2691951C, b, 120,  variable, 1, wye,  4.63566479086876, 0.97 
138380C0a, 1, SX2879076C, a, 120,  variable, 1, wye,  2.61281781375408, 0.97 
138380C0b, 1, SX2879076C, b, 120,  variable, 1, wye,  1.45718218624592, 0.97 
138404C0a, 1, SX2841630C, a, 120,  variable, 1, wye,  8.31935176134109, 0.97 
138404C0b, 1, SX2841630C, b, 120,  variable, 1, wye,  1.85064823865891, 0.97 
138405C0a, 1, SX2841629C, a, 120,  variable, 1, wye,  8.68428897500038, 0.97 
138405C0b, 1, SX2841629C, b, 120,  variable, 1, wye,  6.57571102499962, 0.97 
138412C0a, 1, SX2785523C, a, 120,  variable, 1, wye,  2.53578065633774, 0.97 
138412C0b, 1, SX2785523C, b, 120,  variable, 1, wye,  3.56421934366226, 0.97 
138413C0a, 1, SX3216347C, a, 120,  variable, 1, wye,  4.66030400395393, 0.97 
138413C0b, 1, SX3216347C, b, 120,  variable, 1, wye,  1.43969599604607, 0.97 
138416C0a, 1, SX3141388C, a, 120,  variable, 1, wye,  2.00353498935699, 0.97 
138416C0b, 1, SX3141388C, b, 120,  variable, 1, wye,  2.06646501064301, 0.97 
138464C0a, 1, SX3066801C, a, 120,  variable, 1, wye,  2.74935719311237, 0.97 
138464C0b, 1, SX3066801C, b, 120,  variable, 1, wye,  1.32064280688763, 0.97 
138465C0a, 1, SX2879055C, a, 120,  variable, 1, wye,  3.90297761797905, 0.97 
138465C0b, 1, SX2879055C, b, 120,  variable, 1, wye,  0.16702238202095, 0.97 
138466C0a, 1, SX2973144C, a, 120,  variable, 1, wye,  8.10096781075001, 0.97 
138466C0b, 1, SX2973144C, b, 120,  variable, 1, wye,  2.06903218924999, 0.97 
138469C0a, 1, SX2785518C, a, 120,  variable, 1, wye,  4.01072108745575, 0.97 
138469C0b, 1, SX2785518C, b, 120,  variable, 1, wye,  2.08927891254425, 0.97 
138470C0a, 1, SX2766717C, a, 120,  variable, 1, wye,  2.60895431101322, 0.97 
138470C0b, 1, SX2766717C, b, 120,  variable, 1, wye,  1.46104568898678, 0.97 
138472C0a, 1, SX2673309C, a, 120,  variable, 1, wye,  9.44700153708458, 0.97 
138472C0b, 1, SX2673309C, b, 120,  variable, 1, wye,  0.72299846291542, 0.97 
138560A0a, 1, SX3104113A, a, 120,  variable, 1, wye,  4.76630929410458, 0.97 
138560A0b, 1, SX3104113A, b, 120,  variable, 1, wye,  4.10369070589542, 0.97 
138561A0a, 1, SX3104121A, a, 120,  variable, 1, wye,  6.50350156784058, 0.97 
138561A0b, 1, SX3104121A, b, 120,  variable, 1, wye,  2.36649843215942, 0.97 
138562A0a, 1, SX2673310A, a, 120,  variable, 1, wye,  6.82647125542164, 0.97 
138562A0b, 1, SX2673310A, b, 120,  variable, 1, wye,  2.04352874457836, 0.97 
138563A0a, 1, SX2916627A, a, 120,  variable, 1, wye,  6.43954766631126, 0.97 
138563A0b, 1, SX2916627A, b, 120,  variable, 1, wye,  2.43045233368874, 0.97 
138564A0a, 1, SX2804283A, a, 120,  variable, 1, wye,  7.51748701274395, 0.97 
138564A0b, 1, SX2804283A, b, 120,  variable, 1, wye,  1.35251298725605, 0.97 
138565A0a, 1, SX3104122A, a, 120,  variable, 1, wye,  8.4127882361412, 0.97 
138565A0b, 1, SX3104122A, b, 120,  variable, 1, wye,  0.457211763858796, 0.97 
138566A0a, 1, SX2785519A, a, 120,  variable, 1, wye,  8.3076517778635, 0.97 
138566A0b, 1, SX2785519A, b, 120,  variable, 1, wye,  0.562348222136498, 0.97 
138567A0a, 1, SX2748129A, a, 120,  variable, 1, wye,  0.489392793178558, 0.97 
138567A0b, 1, SX2748129A, b, 120,  variable, 1, wye,  12.8106072068214, 0.97 
138569A0a, 1, SX2973151A, a, 120,  variable, 1, wye,  3.8825451207161, 0.97 
138569A0b, 1, SX2973151A, b, 120,  variable, 1, wye,  1.43745487928391, 0.97 
138570A0a, 1, SX2748146A, a, 120,  variable, 1, wye,  0.57196382522583, 0.97 
138570A0b, 1, SX2748146A, b, 120,  variable, 1, wye,  4.74803617477417, 0.97 
138571A0a, 1, SX2991913A, a, 120,  variable, 1, wye,  1.55185956716537, 0.97 
138571A0b, 1, SX2991913A, b, 120,  variable, 1, wye,  3.76814043283463, 0.97 
138573A0a, 1, SX3235253A, a, 120,  variable, 1, wye,  6.42777684092522, 0.97 
138573A0b, 1, SX3235253A, b, 120,  variable, 1, wye,  2.44222315907478, 0.97 
138574A0a, 1, SX2991907A, a, 120,  variable, 1, wye,  5.82470866858959, 0.97 
138574A0b, 1, SX2991907A, b, 120,  variable, 1, wye,  3.04529133141041, 0.97 
138581A0a, 1, SX2879064A, a, 120,  variable, 1, wye,  5.37039572954178, 0.97 
138581A0b, 1, SX2879064A, b, 120,  variable, 1, wye,  3.49960427045822, 0.97 
138585C0a, 1, SX3197637C, a, 120,  variable, 1, wye,  0.863561273217201, 0.97 
138585C0b, 1, SX3197637C, b, 120,  variable, 1, wye,  3.2064387267828, 0.97 
138586C0a, 1, SX2860487C, a, 120,  variable, 1, wye,  5.91896427869797, 0.97 
138586C0b, 1, SX2860487C, b, 120,  variable, 1, wye,  0.181035721302033, 0.97 
138641C0a, 1, SX2841638C, a, 120,  variable, 1, wye,  0.905626183748245, 0.97 
138641C0b, 1, SX2841638C, b, 120,  variable, 1, wye,  5.19437381625175, 0.97 
138642A0a, 1, SX3235256A, a, 120,  variable, 1, wye,  3.69108180999756, 0.97 
138642A0b, 1, SX3235256A, b, 120,  variable, 1, wye,  1.62891819000244, 0.97 
138644A0a, 1, SX3197630A, a, 120,  variable, 1, wye,  4.48774401962757, 0.97 
138644A0b, 1, SX3197630A, b, 120,  variable, 1, wye,  4.38225598037243, 0.97 
138645B0a, 1, SX3104120B, a, 120,  variable, 1, wye,  3.86900570869446, 0.97 
138645B0b, 1, SX3104120B, b, 120,  variable, 1, wye,  1.97099429130554, 0.97 
138646A0a, 1, SX2804251A, a, 120,  variable, 1, wye,  2.13520937860012, 0.97 
138646A0b, 1, SX2804251A, b, 120,  variable, 1, wye,  1.41479062139988, 0.97 
138647C0a, 1, SX3254210C, a, 120,  variable, 1, wye,  6.07667944431305, 0.97 
138647C0b, 1, SX3254210C, b, 120,  variable, 1, wye,  2.33205556869507E-02, 0.97 
138649A0a, 1, SX3048206A, a, 120,  variable, 1, wye,  7.67008161604404, 0.97 
138649A0b, 1, SX3048206A, b, 120,  variable, 1, wye,  1.19991838395596, 0.97 
138650C0a, 1, SX2710510C, a, 120,  variable, 1, wye,  0.156969414949417, 0.97 
138650C0b, 1, SX2710510C, b, 120,  variable, 1, wye,  3.91303058505058, 0.97 
138651C0a, 1, SX3197628C, a, 120,  variable, 1, wye,  3.72313893377781, 0.97 
138651C0b, 1, SX3197628C, b, 120,  variable, 1, wye,  6.44686106622219, 0.97 
138652C0a, 1, SX2766718C, a, 120,  variable, 1, wye,  4.17881947517395, 0.97 
138652C0b, 1, SX2766718C, b, 120,  variable, 1, wye,  11.081180524826, 0.97 
138655A0a, 1, SX3010556A, a, 120,  variable, 1, wye,  3.01712541341782, 0.97 
138655A0b, 1, SX3010556A, b, 120,  variable, 1, wye,  2.30287458658218, 0.97 
138679A0a, 1, SX2710520A, a, 120,  variable, 1, wye,  3.05977079868317, 0.97 
138679A0b, 1, SX2710520A, b, 120,  variable, 1, wye,  2.26022920131683, 0.97 
138680A0a, 1, SX2710521A, a, 120,  variable, 1, wye,  0.664908358454704, 0.97 
138680A0b, 1, SX2710521A, b, 120,  variable, 1, wye,  8.20509164154529, 0.97 
138684A0a, 1, SX3085396A, a, 120,  variable, 1, wye,  3.91537283182144, 0.97 
138684A0b, 1, SX3085396A, b, 120,  variable, 1, wye,  4.95462716817856, 0.97 
138685A0a, 1, SX3122813A, a, 120,  variable, 1, wye,  2.29734759092331, 0.97 
138685A0b, 1, SX3122813A, b, 120,  variable, 1, wye,  3.02265240907669, 0.97 
138716C0a, 1, SX3254219C, a, 120,  variable, 1, wye,  1.3092828977108, 0.97 
138716C0b, 1, SX3254219C, b, 120,  variable, 1, wye,  8.8607171022892, 0.97 
138717C0a, 1, SX3254220C, a, 120,  variable, 1, wye,  2.24819816172123, 0.97 
138717C0b, 1, SX3254220C, b, 120,  variable, 1, wye,  7.92180183827877, 0.97 
138718C0a, 1, SX3104134C, a, 120,  variable, 1, wye,  8.46614170074463, 0.97 
138718C0b, 1, SX3104134C, b, 120,  variable, 1, wye,  1.70385829925537, 0.97 
138719A0a, 1, SX2860490A, a, 120,  variable, 1, wye,  0.183259337544441, 0.97 
138719A0b, 1, SX2860490A, b, 120,  variable, 1, wye,  8.68674066245556, 0.97 
138720A0a, 1, SX3254218A, a, 120,  variable, 1, wye,  2.89486701369286, 0.97 
138720A0b, 1, SX3254218A, b, 120,  variable, 1, wye,  5.97513298630714, 0.97 
138751B0a, 1, SX3066818B, a, 120,  variable, 1, wye,  9.59230809271336, 0.97 
138751B0b, 1, SX3066818B, b, 120,  variable, 1, wye,  0.137691907286644, 0.97 
138752B0a, 1, SX2785528B, a, 120,  variable, 1, wye,  4.17620378494263, 0.97 
138752B0b, 1, SX2785528B, b, 120,  variable, 1, wye,  1.66379621505737, 0.97 
138753B0a, 1, SX2748130B, a, 120,  variable, 1, wye,  0.89254738509655, 0.97 
138753B0b, 1, SX2748130B, b, 120,  variable, 1, wye,  8.83745261490345, 0.97 
138754B0a, 1, SX3254212B, a, 120,  variable, 1, wye,  3.00803367257118, 0.97 
138754B0b, 1, SX3254212B, b, 120,  variable, 1, wye,  11.5819663274288, 0.97 
138755B0a, 1, SX2785520B, a, 120,  variable, 1, wye,  1.23461380779743, 0.97 
138755B0b, 1, SX2785520B, b, 120,  variable, 1, wye,  2.65538619220257, 0.97 
138769A0a, 1, SX2729411A, a, 120,  variable, 1, wye,  0.204705214500427, 0.97 
138769A0b, 1, SX2729411A, b, 120,  variable, 1, wye,  3.34529478549957, 0.97 
138770A0a, 1, SX2897781A, a, 120,  variable, 1, wye,  1.07414735853672, 0.97 
138770A0b, 1, SX2897781A, b, 120,  variable, 1, wye,  2.47585264146328, 0.97 
138771A0a, 1, SX3197644A, a, 120,  variable, 1, wye,  0.574874138832092, 0.97 
138771A0b, 1, SX3197644A, b, 120,  variable, 1, wye,  4.74512586116791, 0.97 
138776C0a, 1, SX3010566C, a, 120,  variable, 1, wye,  1.57651792168617, 0.97 
138776C0b, 1, SX3010566C, b, 120,  variable, 1, wye,  4.52348207831383, 0.97 
138796B0a, 1, SX3236011B, a, 120,  variable, 1, wye,  3.17862752914429, 0.97 
138796B0b, 1, SX3236011B, b, 120,  variable, 1, wye,  2.66137247085571, 0.97 
138797B0a, 1, SX3198358B, a, 120,  variable, 1, wye,  2.38206663906574, 0.97 
138797B0b, 1, SX3198358B, b, 120,  variable, 1, wye,  12.2079333609343, 0.97 
138798B0a, 1, SX3104859B, a, 120,  variable, 1, wye,  4.75561747550964, 0.97 
138798B0b, 1, SX3104859B, b, 120,  variable, 1, wye,  1.08438252449036, 0.97 
157715B0a, 1, SX2936275B, a, 120,  variable, 1, wye,  2.04099854767323, 0.97 
157715B0b, 1, SX2936275B, b, 120,  variable, 1, wye,  1.84900145232677, 0.97 
157716B0a, 1, SX3179674B, a, 120,  variable, 1, wye,  8.17862984657288, 0.97 
157716B0b, 1, SX3179674B, b, 120,  variable, 1, wye,  1.55137015342712, 0.97 
157717B0a, 1, SX2748840B, a, 120,  variable, 1, wye,  1.39889852046967, 0.97 
157717B0b, 1, SX2748840B, b, 120,  variable, 1, wye,  4.44110147953033, 0.97 
157718B0a, 1, SX3142099B, a, 120,  variable, 1, wye,  9.14856792569161, 0.97 
157718B0b, 1, SX3142099B, b, 120,  variable, 1, wye,  0.581432074308395, 0.97 
207286C0a, 1, SX3011298C, a, 120,  variable, 1, wye,  1.35406212985516, 0.97 
207286C0b, 1, SX3011298C, b, 120,  variable, 1, wye,  2.71593787014484, 0.97 
207287B0a, 1, SX2711234B, a, 120,  variable, 1, wye,  1.06192909479141, 0.97 
207287B0b, 1, SX2711234B, b, 120,  variable, 1, wye,  8.66807090520859, 0.97 
207288B0a, 1, SX3198355B, a, 120,  variable, 1, wye,  2.35699640452862, 0.97 
207288B0b, 1, SX3198355B, b, 120,  variable, 1, wye,  1.53300359547138, 0.97 
207290A0a, 1, SX2879773A, a, 120,  variable, 1, wye,  5.09814939618111, 0.97 
207290A0b, 1, SX2879773A, b, 120,  variable, 1, wye,  3.77185060381889, 0.97 
207291C0a, 1, SX2786274C, a, 120,  variable, 1, wye,  4.86335722982883, 0.97 
207291C0b, 1, SX2786274C, b, 120,  variable, 1, wye,  5.30664277017117, 0.97 
207292C0a, 1, SX3179682C, a, 120,  variable, 1, wye,  4.72984499931335, 0.97 
207292C0b, 1, SX3179682C, b, 120,  variable, 1, wye,  1.37015500068665, 0.97 
218472A0a, 1, SX2936270A, a, 120,  variable, 1, wye,  4.868102825284, 0.97 
218472A0b, 1, SX2936270A, b, 120,  variable, 1, wye,  4.001897174716, 0.97 
218473A0a, 1, SX3086078A, a, 120,  variable, 1, wye,  1.51733362078667, 0.97 
218473A0b, 1, SX3086078A, b, 120,  variable, 1, wye,  7.35266637921333, 0.97 
218474A0a, 1, SX3217056A, a, 120,  variable, 1, wye,  11.7821743142605, 0.97 
218474A0b, 1, SX3217056A, b, 120,  variable, 1, wye,  5.95782568573952, 0.97 
218475A0a, 1, SX3217057A, a, 120,  variable, 1, wye,  1.9275314450264, 0.97 
218475A0b, 1, SX3217057A, b, 120,  variable, 1, wye,  1.6224685549736, 0.97 
223655C0a, 1, SX2936268C, a, 120,  variable, 1, wye,  3.17055389285088, 0.97 
223655C0b, 1, SX2936268C, b, 120,  variable, 1, wye,  2.92944610714912, 0.97 
223658A0a, 1, SX2823592A, a, 120,  variable, 1, wye,  1.21636754393578, 0.97 
223658A0b, 1, SX2823592A, b, 120,  variable, 1, wye,  0.553632456064224, 0.97 
223660C0a, 1, SX3160863C, a, 120,  variable, 1, wye,  0.480949193239212, 0.97 
223660C0b, 1, SX3160863C, b, 120,  variable, 1, wye,  5.61905080676079, 0.97 
223661C0a, 1, SX2730108C, a, 120,  variable, 1, wye,  4.02298564910889, 0.97 
223661C0b, 1, SX2730108C, b, 120,  variable, 1, wye,  2.07701435089111, 0.97 
223662C0a, 1, SX2786204C, a, 120,  variable, 1, wye,  5.16334467053413, 0.97 
223662C0b, 1, SX2786204C, b, 120,  variable, 1, wye,  10.0966553294659, 0.97 
223663C0a, 1, SX2936216C, a, 120,  variable, 1, wye,  3.97553170561791, 0.97 
223663C0b, 1, SX2936216C, b, 120,  variable, 1, wye,  9.44682943820951E-02, 0.97 
247036C0a, 1, SX3029498C, a, 120,  variable, 1, wye,  0.911813089251518, 0.97 
247036C0b, 1, SX3029498C, b, 120,  variable, 1, wye,  3.15818691074848, 0.97 
247056A0a, 1, SX2991912A, a, 120,  variable, 1, wye,  2.29926190376282, 0.97 
247056A0b, 1, SX2991912A, b, 120,  variable, 1, wye,  3.02073809623718, 0.97 
...
